/*--------------------------------*- C++ -*----------------------------------*\
| =========                 |                                                 |
| \\      /  F ield         | OpenFOAM: The Open Source CFD Toolbox           |
|  \\    /   O peration     | Version:  2.3.x                                 |
|   \\  /    A nd           | Web:      www.OpenFOAM.org                      |
|    \\/     M anipulation  |                                                 |
\*---------------------------------------------------------------------------*/
FoamFile
{
    version     2.0;
    format      binary;
    class       polyBoundaryMesh;
    location    "constant/polyMesh";
    object      boundary;
}
// * * * * * * * * * * * * * * * * * * * * * * * * * * * * * * * * * * * * * //

6
(
    inlet
    {
        type            patch;
        nFaces          80;
        startFace       28315;
    }
    bottom
    {
        type            wall;
        inGroups        1(wall);
        nFaces          179;
        startFace       28395;
    }
    outlet
    {
        type            patch;
        nFaces          80;
        startFace       28574;
    }
    atmosphere
    {
        type            patch;
        nFaces          180;
        startFace       28654;
    }
    frontBack
    {
        type            empty;
        inGroups        1(empty);
        nFaces          28650;
        startFace       28834;
    }
    flapper
    {
        type            wall;
        inGroups        1(wall);
        nFaces          151;
        startFace       57484;
    }
)

// ************************************************************************* //
